9
INSERT TITLE CARD HERE
O	-0.0	0.0	0.0
H	0.5000000000000001	0.5	-0.7071067811865475
C	0.6370505946354301	-0.3068656707333764	-0.7071067811865475
H	0.34759706237180543	-0.026637848927940213	-1.5369809687937972
H	1.5324875506466649	-0.11744107265903689	-0.34861625430409343
C	-0.42159965252596	1.3454131619653094	-1.4099229920103797
H	-1.1223553066249328	1.6829653997720235	-2.0228825895585123
H	-0.00764072074093748	0.7994384160963829	-2.1066761147163895
H	-0.020133869499523154	2.1065799010755613	-0.7994749287777154
